<?xml version="1.0" encoding="UTF-8"?>
<!DOCTYPE network SYSTEM "http://www.matsim.org/files/dtd/network_v1.dtd">
<network>

<!-- ====================================================================== -->

	<nodes>
		<node id="1013370329" x="2369648.370431357" y="887758.1269147671" />
		<node id="1013370334" x="2369741.5629535764" y="887562.1675131476" />
		<node id="1013370335" x="2369808.5784324002" y="887454.4806138808" />
		<node id="1013370343" x="2369833.2937381505" y="887383.8923902524" />
		<node id="1013370348" x="2369905.151138918" y="887185.2092043019" />
		<node id="1013370350" x="2369890.6109658913" y="887020.9813519628" />
		<node id="1013370352" x="2369871.2985962583" y="886798.9458130203" />
		<node id="1013370358" x="2369859.094166949" y="886559.1261478018" />
		<node id="1013370361" x="2369953.227695559" y="886543.1161128577" />
		<node id="1013370363" x="2370005.113501894" y="886459.757233405" />
		<node id="1013370369" x="2370070.977849885" y="886254.282922408" />
		<node id="1013370373" x="2369903.5862393165" y="886135.2089191747" />
		<node id="1014105423" x="2369862.6015849" y="888563.2433639256" />
		<node id="1014105426" x="2369654.1996985963" y="888688.2444262778" />
		<node id="1014193004" x="2370666.4249449684" y="889769.3634746168" />
		<node id="1014193005" x="2370514.933641467" y="889777.3086120711" />
		<node id="1014194440" x="2369473.8464882323" y="890221.0704430632" />
		<node id="1014194441" x="2369365.422274593" y="890020.2678594877" />
		<node id="1014194442" x="2369488.6829503374" y="889994.5809966753" />
		<node id="1014194443" x="2369428.6005874956" y="890232.2753574082" />
		<node id="1014194444" x="2369272.353999195" y="890356.5123759544" />
		<node id="1014194445" x="2369571.6638008705" y="889977.7147152412" />
		<node id="1014194446" x="2369425.1137510478" y="889978.0068984863" />
		<node id="1014194447" x="2369430.449864251" y="890006.4194076378" />
		<node id="1014194448" x="2369266.266307071" y="890039.7899185583" />
		<node id="1014194449" x="2369261.6935424977" y="890280.1689826592" />
		<node id="1014194450" x="2369490.409093154" y="890294.3012235046" />
		<node id="1014194452" x="2369449.8403020725" y="890305.5315876778" />
		<node id="1024734778" x="2370088.2664670977" y="890139.4614191145" />
		<node id="1024734784" x="2370762.1490799543" y="890134.4443788478" />
		<node id="1024734788" x="2370274.6640910576" y="889589.5926825852" />
		<node id="1024734790" x="2369390.9804111426" y="889748.9973775566" />
		<node id="1024734795" x="2369853.9611661113" y="889012.0004028567" />
		<node id="1024734798" x="2369650.152083514" y="891080.0528856687" />
		<node id="1024734808" x="2370151.1414853297" y="889100.1530056883" />
		<node id="1024734810" x="2371314.6843411154" y="889904.299817488" />
		<node id="1024734811" x="2369453.8541489225" y="890120.3153926287" />
		<node id="1024734812" x="2369555.1080651376" y="889736.6204627347" />
		<node id="1024734828" x="2369702.9939445597" y="890109.4908697217" />
		<node id="1024734829" x="2370124.76258777" y="889146.6760130519" />
		<node id="1024734831" x="2370115.8789393934" y="888997.32049833" />
		<node id="1024734834" x="2370282.088936643" y="890043.4531312882" />
		<node id="1024734838" x="2369810.6773561416" y="889157.2581739262" />
		<node id="1024734841" x="2369744.4652635837" y="890565.0825577788" />
		<node id="1024734853" x="2369306.8355076225" y="890778.462675903" />
		<node id="1024734854" x="2370551.1819418315" y="890313.8593156629" />
		<node id="1024734860" x="2369922.2749780254" y="889576.864922699" />
		<node id="1024734870" x="2369589.051499969" y="890086.6812911398" />
		<node id="1024734876" x="2370202.7974804" y="888980.9192220831" />
		<node id="1024734880" x="2370214.2505880953" y="890832.832806661" />
		<node id="1024734881" x="2370735.429799607" y="889801.3141942591" />
		<node id="1024734900" x="2370374.805651113" y="890247.1866636847" />
		<node id="1024734913" x="2370958.1991580236" y="889963.3991738848" />
		<node id="1024734917" x="2369466.789022363" y="889810.8592982446" />
		<node id="1024734921" x="2370745.652170329" y="890006.8988460486" />
		<node id="1024734923" x="2369278.7040440817" y="890430.0690865994" />
		<node id="1024734935" x="2369767.0418949337" y="889392.2464993864" />
		<node id="1024734937" x="2370172.6839756635" y="890065.9506871772" />
		<node id="1024734939" x="2370325.414761691" y="889364.2306758311" />
		<node id="1024734941" x="2370040.5605432247" y="889284.5162103696" />
		<node id="1024734943" x="2370185.291499548" y="889028.9459580145" />
		<node id="1024734950" x="2369741.5028710463" y="889544.4637186512" />
		<node id="1024734958" x="2369949.635676895" y="890307.1041541275" />
		<node id="1024734966" x="2370114.5978883407" y="889165.9105828025" />
		<node id="1024734969" x="2370462.093055584" y="889303.2698827483" />
		<node id="1024734971" x="2370252.77736374" y="889086.3290961359" />
		<node id="1024734979" x="2371266.5515903737" y="889892.2937918939" />
		<node id="1024734984" x="2371334.566593272" y="890093.954557315" />
		<node id="1024734992" x="2369268.3502412504" y="889847.1048990457" />
		<node id="1024734996" x="2369984.0320819146" y="889044.8935716713" />
		<node id="1024735001" x="2369461.7117362875" y="889745.2452459417" />
		<node id="1024735007" x="2369976.445739113" y="889555.3275420135" />
		<node id="1024735014" x="2370426.996066503" y="889769.2035315104" />
		<node id="1024735018" x="2370369.98971079" y="889624.8287167832" />
		<node id="1024735022" x="2369298.588162253" y="890689.8133812976" />
		<node id="1024735026" x="2370770.05338871" y="890308.8128872638" />
		<node id="1024735033" x="2370198.3279884607" y="888761.8028149189" />
		<node id="1024735035" x="2369695.9255444882" y="890060.490244429" />
		<node id="1024735038" x="2369652.2978396704" y="890778.1670482599" />
		<node id="1024735042" x="2370799.333509557" y="890619.241354695" />
		<node id="1024735049" x="2370280.9329886697" y="889108.6231235559" />
		<node id="1024735054" x="2369599.1341348537" y="890546.8058847027" />
		<node id="1024735062" x="2369577.5567282694" y="890023.725199855" />
		<node id="1024735065" x="2369747.621479972" y="889707.9610637185" />
		<node id="1024735070" x="2369863.765727856" y="890951.7848776168" />
		<node id="1024735073" x="2370305.7740439656" y="889208.552587578" />
		<node id="1024735076" x="2369853.8172854157" y="888860.1776694312" />
		<node id="1024735079" x="2370378.7692879345" y="890318.1044919031" />
		<node id="1024735081" x="2369895.970500336" y="888838.5685747232" />
		<node id="1024735088" x="2369259.460974288" y="890218.7041154782" />
		<node id="1024735092" x="2369771.126425452" y="890813.1996083454" />
		<node id="1024735098" x="2369845.9465235732" y="889276.3540513882" />
		<node id="1024735111" x="2369650.8853693516" y="889730.5203894841" />
		<node id="1024735115" x="2369750.6501714173" y="890910.5019429789" />
		<node id="1024735120" x="2369817.0833291984" y="889429.226129272" />
		<node id="1024735134" x="2369724.340265159" y="890740.7681866658" />
		<node id="1024735141" x="2370262.2327603186" y="889266.6734907404" />
		<node id="1024735155" x="2369457.4737276635" y="889704.5955373948" />
		<node id="1024735157" x="2370290.2398990085" y="889030.8857378958" />
		<node id="1024735159" x="2369719.8006820898" y="890227.9549680202" />
		<node id="1024735160" x="2369439.3610274126" y="890053.036774446" />
		<node id="1024735161" x="2371284.5053419913" y="890195.2635623809" />
		<node id="1024735166" x="2369874.6241533794" y="890171.3928514194" />
		<node id="1024735177" x="2369869.6582333795" y="889586.6637565235" />
		<node id="1024735180" x="2370001.5816528834" y="889033.5186849872" />
		<node id="1024735183" x="2370357.584060691" y="889433.4858067909" />
		<node id="1024735184" x="2369500.535556053" y="890106.4208093806" />
		<node id="1024735185" x="2370306.3585424228" y="888790.3591424072" />
		<node id="1024735186" x="2369462.833630009" y="890170.1209380899" />
		<node id="1024735206" x="2369552.420419234" y="889699.2179995" />
		<node id="1024735208" x="2370434.157611408" y="889930.6352162529" />
		<node id="1024735209" x="2370221.9483312434" y="889324.3019880296" />
		<node id="1024735211" x="2369291.063704349" y="890573.150850518" />
		<node id="1024735219" x="2369493.592042132" y="890041.7434806243" />
		<node id="1024735222" x="2369274.3648849013" y="889957.7871465324" />
		<node id="1024735226" x="2369695.483346789" y="889513.5334020954" />
		<node id="1024735229" x="2369802.76994261" y="890981.327617814" />
		<node id="1024735232" x="2369859.410053775" y="889211.505705371" />
		<node id="1024735234" x="2370109.374066079" y="888690.8364392332" />
		<node id="1024735237" x="2370132.590416185" y="888827.5945065307" />
		<node id="1024735243" x="2369903.52396856" y="889097.0833789617" />
		<node id="1024735249" x="2369703.137173549" y="890492.3900792246" />
		<node id="1024735254" x="2369688.8827875485" y="890002.6249416458" />
		<node id="1024735264" x="2370388.818285877" y="890447.9492937664" />
		<node id="1024735266" x="2370056.2301829485" y="890502.0371031227" />
		<node id="1024735268" x="2370068.753118453" y="889992.3499394747" />
		<node id="1024735271" x="2369710.6639977726" y="890157.6374927044" />
		<node id="1024735272" x="2369502.525496467" y="890858.9896788093" />
		<node id="1024735276" x="2369262.315988447" y="890091.947340203" />
		<node id="1024735285" x="2371368.357576937" y="890035.9959281357" />
		<node id="1024735293" x="2370214.975259723" y="889137.5271815443" />
		<node id="1024735295" x="2369810.864006926" y="888879.8715668651" />
		<node id="1024735296" x="2369802.6612225748" y="889200.4059961233" />
		<node id="1024735305" x="2369884.7170738843" y="889351.6825019328" />
		<node id="1024735308" x="2370585.6497805915" y="890602.8524116934" />
		<node id="1024735314" x="2369396.7511420227" y="889708.7077349158" />
		<node id="1024735317" x="2369947.7222788217" y="889068.4277485363" />
		<node id="1024735318" x="2369700.576019016" y="890843.9583439253" />
		<node id="1024735329" x="2370262.286851213" y="889958.6258302793" />
		<node id="1024735332" x="2371185.4558706805" y="890125.5398830636" />
		<node id="1024735335" x="2370356.1025059326" y="890040.0767203828" />
		<node id="1024735339" x="2370168.310571782" y="889496.2907906253" />
		<node id="1024735342" x="2371140.7984769647" y="889904.6047516351" />
		<node id="1024735352" x="2369813.388424058" y="890880.145330805" />
		<node id="1024735358" x="2370275.483748586" y="889051.0824650481" />
		<node id="1024735360" x="2369770.145742928" y="888897.7492995074" />
		<node id="1024735366" x="2369858.1486647767" y="889639.7603896103" />
		<node id="1024735372" x="2369685.7516989633" y="890681.0134561205" />
		<node id="1024735375" x="2370012.478477254" y="888789.6137949575" />
		<node id="1024735378" x="2369813.4592395164" y="890692.4546621427" />
		<node id="1024735380" x="2369865.306855913" y="889121.848140826" />
		<node id="1024735382" x="2369531.9381127697" y="890574.2973420584" />
		<node id="1024735384" x="2371305.543570084" y="890147.599157634" />
		<node id="1024735397" x="2369922.068169788" y="890255.2597894507" />
		<node id="1024735399" x="2370782.032722695" y="890244.2574441865" />
		<node id="1024735402" x="2370625.661518307" y="891763.2590207491" />
		<node id="1024735406" x="2369645.640128037" y="889691.8616134697" />
		<node id="1024735409" x="2369412.995157907" y="890181.6839119107" />
		<node id="1024735413" x="2370539.381955778" y="890229.0649753793" />
		<node id="1024735424" x="2370102.5380713525" y="889186.3647214518" />
		<node id="1024735429" x="2370052.9495885144" y="889114.5724433383" />
		<node id="1024735432" x="2369978.7816566126" y="889511.3519490665" />
		<node id="1024735435" x="2370340.0337811373" y="890697.0365978138" />
		<node id="1024735437" x="2370389.8445278606" y="889335.0523285602" />
		<node id="1024735439" x="2369933.5102155153" y="890916.2935795883" />
		<node id="1024735454" x="2369630.98051203" y="889569.2932362643" />
		<node id="1024735464" x="2371348.4077751194" y="890040.9611948599" />
		<node id="1024735468" x="2369213.200985015" y="889854.8199546011" />
		<node id="1024735471" x="2369645.0987311364" y="890616.8817307679" />
		<node id="1024735485" x="2370193.8703213334" y="888893.9450582771" />
		<node id="1024735487" x="2369326.6335835718" y="890964.0673054795" />
		<node id="1024735489" x="2369378.8596580867" y="890065.3988435188" />
		<node id="1024735490" x="2370014.1153834094" y="890699.9416499612" />
		<node id="1024735496" x="2370650.9361523082" y="890303.1334380185" />
		<node id="1024735498" x="2369935.7067858195" y="889366.4965864574" />
		<node id="1024735501" x="2369924.1530623324" y="889554.9288449013" />
		<node id="1024735516" x="2370268.941846125" y="889756.775408788" />
		<node id="1024735517" x="2370078.7555409716" y="889228.6176299517" />
		<node id="1024735518" x="2369505.507681115" y="890158.5467064861" />
		<node id="1024735522" x="2369451.5294687795" y="889627.3207176693" />
		<node id="1024735525" x="2370196.6915421225" y="889546.499345398" />
		<node id="1024735540" x="2370112.395731096" y="890880.8216392654" />
		<node id="1024735545" x="2369896.9384805597" y="890842.2445423232" />
		<node id="1024735547" x="2370037.1480742814" y="888887.8031650678" />
		<node id="1024735552" x="2369893.7737000687" y="888985.052031712" />
		<node id="1024735555" x="2370618.140433526" y="889670.5781848734" />
		<node id="1024735557" x="2370362.8420913587" y="890163.8283078357" />
		<node id="1024735563" x="2369470.157542849" y="890378.6297327676" />
		<node id="1024735565" x="2370523.0984893036" y="890034.7080320853" />
		<node id="1024735566" x="2370060.8167755445" y="890102.1008492645" />
		<node id="1024735571" x="2370014.689923666" y="889332.9020443173" />
		<node id="1024735574" x="2369780.259652039" y="890630.3268800606" />
		<node id="1024735576" x="2370739.9968082192" y="889919.9033961173" />
		<node id="1024735584" x="2370594.72875103" y="890667.0148819027" />
		<node id="1024735585" x="2369816.4210064868" y="889039.6205371146" />
		<node id="1025829399" x="2371056.171421014" y="892823.9070532667" />
		<node id="1025829401" x="2371497.995800135" y="893087.7380836444" />
		<node id="1025829413" x="2371004.948431998" y="892817.4847060398" />
		<node id="1025829416" x="2371625.2287218566" y="892865.5021421589" />
		<node id="1025829417" x="2371101.9983111504" y="893268.0825981031" />
		<node id="1025829418" x="2371541.107958113" y="891426.78432047" />
		<node id="1025829419" x="2370929.780610728" y="892935.6151755524" />
		<node id="1025829429" x="2371441.6927917697" y="893230.550462502" />
		<node id="1025829430" x="2370902.554692162" y="892424.5758505278" />
		<node id="1025829433" x="2370835.537978312" y="892281.3520535068" />
		<node id="1025829435" x="2370610.168081565" y="891615.5611421553" />
		<node id="1025829447" x="2371463.0714041837" y="892658.372895594" />
		<node id="1025829450" x="2370925.451723976" y="892550.307756075" />
		<node id="1025829452" x="2370914.5749010206" y="892906.3475038785" />
		<node id="1025829461" x="2370860.2651874623" y="892398.662628075" />
		<node id="1025829469" x="2371318.0528155304" y="892881.1227442279" />
		<node id="1025829472" x="2370667.725436883" y="891545.7668745633" />
		<node id="1025829474" x="2371067.698545454" y="892779.072721891" />
		<node id="1025829482" x="2371606.553101054" y="892987.0529062091" />
		<node id="1025829484" x="2370685.1895159925" y="891681.4774011045" />
		<node id="1025829494" x="2371224.6970950896" y="892721.8139542072" />
		<node id="1025829496" x="2371153.6288069794" y="893190.440788974" />
		<node id="1025829498" x="2371543.338441655" y="892893.6145756036" />
		<node id="1025829502" x="2371318.4504900896" y="893271.3914059554" />
		<node id="1025829504" x="2371103.2800365775" y="892907.4145649537" />
		<node id="1025829513" x="2371176.4278738387" y="893037.0903607953" />
		<node id="1025829516" x="2371473.1376803005" y="891308.7332778487" />
		<node id="1025829520" x="2370896.4405873697" y="892404.6277833115" />
		<node id="1025829528" x="2371231.550799929" y="893072.8439949211" />
		<node id="1025829538" x="2371405.9637617245" y="891063.8544441296" />
		<node id="1025829540" x="2371405.9244662006" y="893040.681149835" />
		<node id="1025829542" x="2371009.9366941494" y="892579.0808890178" />
		<node id="1025829561" x="2371137.5292583946" y="892968.1200650445" />
		<node id="1025829562" x="2371552.6842539404" y="893193.1747903815" />
		<node id="1025829564" x="2371070.8954337174" y="892850.0106392131" />
		<node id="1025829565" x="2371033.7761856364" y="892715.6871639751" />
		<node id="1025829573" x="2370933.368515731" y="892808.8277458448" />
		<node id="1025829574" x="2370816.278344208" y="892393.2880663654" />
		<node id="1025829576" x="2371033.288104667" y="891319.8977147113" />
		<node id="1025829577" x="2370646.808224908" y="891612.4234042699" />
		<node id="1025829582" x="2371403.3373700334" y="890998.3700331396" />
		<node id="1025829584" x="2371462.660957019" y="893311.7250309642" />
		<node id="1025829593" x="2370823.640148299" y="892604.3274591943" />
		<node id="1025829595" x="2371255.8364397604" y="892777.6919937216" />
		<node id="1025829596" x="2370458.714213829" y="891474.855818067" />
		<node id="1025829602" x="2371459.800163466" y="892703.3058473895" />
		<node id="1025829614" x="2370865.5243413453" y="892602.871982088" />
		<node id="1025829616" x="2371333.9987166515" y="891384.3396964851" />
		<node id="1025829621" x="2370950.27782132" y="892473.5244070514" />
		<node id="1025829623" x="2370787.1574670416" y="892534.4895272584" />
		<node id="1025829628" x="2371431.3239444722" y="892808.463912241" />
		<node id="1025829633" x="2371444.15878402" y="891215.3557589547" />
		<node id="1025829639" x="2370469.156107507" y="891495.8274290711" />
		<node id="1025829641" x="2370850.012199725" y="892743.6791680055" />
		<node id="1025829648" x="2371270.6872512526" y="892805.10526082" />
		<node id="1025829655" x="2371030.9745672666" y="893125.2077974989" />
		<node id="1025829675" x="2370899.4551500794" y="892877.2267868731" />
		<node id="1025829677" x="2371421.539389482" y="893069.1679195757" />
		<node id="1025829678" x="2370361.5731248898" y="891266.8877729705" />
		<node id="1025829679" x="2371457.228173822" y="892738.534945801" />
		<node id="1025829680" x="2371098.8408614043" y="893084.2673065388" />
		<node id="1025829681" x="2371301.1323887506" y="892491.5232040049" />
		<node id="1025829687" x="2371047.1816379167" y="892740.7219882862" />
		<node id="1025829688" x="2370762.472934825" y="892654.2171707712" />
		<node id="1025829689" x="2370632.1420944803" y="891729.944050605" />
		<node id="1025829692" x="2371565.132012828" y="892925.8233213881" />
		<node id="1025829694" x="2371087.055506101" y="892878.657485099" />
		<node id="1025829697" x="2370641.7082368494" y="891454.027926404" />
		<node id="1025829699" x="2370769.168566245" y="892621.7192746627" />
		<node id="1025829701" x="2371240.3783556535" y="892749.1317853903" />
		<node id="1025829705" x="2371728.794990054" y="892836.5261530862" />
		<node id="1025829708" x="2371573.8411669983" y="893185.8185690623" />
		<node id="1025829709" x="2371340.688570561" y="892934.3799947113" />
		<node id="1025829712" x="2370945.400600997" y="892965.6875503251" />
		<node id="1025829716" x="2371374.1094610277" y="892987.1909055217" />
		<node id="1025829717" x="2370602.8339720992" y="891478.4672585668" />
		<node id="1025829723" x="2370960.500672683" y="892994.7363038134" />
		<node id="1025829730" x="2370266.9398787124" y="891283.0101792485" />
		<node id="1025829733" x="2371304.6146168774" y="892867.7701446821" />
		<node id="1025829738" x="2370911.531455883" y="892786.6096271788" />
		<node id="1025829739" x="2371206.1121003814" y="892698.973454349" />
		<node id="1025829740" x="2370909.5428451467" y="892599.512268133" />
		<node id="1025829741" x="2371125.7142675635" y="893137.8100224751" />
		<node id="1025829744" x="2371476.735953708" y="892568.0198421413" />
		<node id="1025829745" x="2371019.9022475868" y="892689.7618229121" />
		<node id="1025856402" x="2371767.6174624646" y="891410.9734978875" />
		<node id="1025856405" x="2371358.2300126925" y="890985.4061421651" />
		<node id="1025856407" x="2372191.6802406837" y="890047.4903912523" />
		<node id="1025856413" x="2372078.4445655174" y="890099.5699914882" />
		<node id="1025856416" x="2372296.179036466" y="890336.3592866578" />
		<node id="1025856424" x="2371479.968953011" y="891208.9863981754" />
		<node id="1025856427" x="2372046.686427514" y="890132.6170501162" />
		<node id="1025856431" x="2371375.6766777467" y="891112.6795430774" />
		<node id="1025856433" x="2371664.581147647" y="891345.7986312297" />
		<node id="1025856434" x="2372126.5340710673" y="890091.8043591395" />
		<node id="1025856444" x="2371328.1084276857" y="891360.8052031838" />
		<node id="1025856449" x="2372270.8471441846" y="890153.5855536315" />
		<node id="1025856450" x="2372350.8440116313" y="890213.8281206778" />
		<node id="1025856452" x="2371664.8911381694" y="891389.5601244979" />
		<node id="1025856459" x="2371625.1772689493" y="890856.0906375553" />
		<node id="1025856462" x="2372298.1908570854" y="890184.4700949504" />
		<node id="1025856478" x="2372121.3153180415" y="890460.745460193" />
		<node id="1025856479" x="2372094.2162595456" y="890114.0347801476" />
		<node id="1025856480" x="2372828.1351245586" y="890183.3789394009" />
		<node id="1025856483" x="2372274.208032929" y="890190.499097174" />
		<node id="1025856490" x="2371405.873609735" y="891112.4465610248" />
		<node id="1025856495" x="2371592.5344102867" y="891055.0877523527" />
		<node id="1025856496" x="2372057.993964895" y="890080.0596144019" />
		<node id="1025856497" x="2372263.3423525887" y="890050.8745930735" />
		<node id="1025856504" x="2371407.1473933146" y="891224.2265795328" />
		<node id="1025856510" x="2371664.3053229176" y="891435.6271768318" />
		<node id="1025856518" x="2371237.4815297835" y="890963.1972448209" />
		<node id="1025856525" x="2371833.224769647" y="890876.9184977565" />
		<node id="1025856531" x="2371704.08759478" y="891192.3042178255" />
		<node id="1025856539" x="2372054.4014035226" y="890319.7383540752" />
		<node id="1025856540" x="2372169.286471076" y="890064.4770099643" />
		<node id="1025856545" x="2371522.452560487" y="891286.2530611529" />
		<node id="1025856546" x="2371764.020534051" y="891346.6405956288" />
		<node id="1025856555" x="2372954.461073062" y="889861.5722897867" />
		<node id="1025856558" x="2371737.349765913" y="891045.0407041541" />
		<node id="1025856561" x="2371665.0586368083" y="891412.3709167639" />
		<node id="1025856565" x="2372279.6424681135" y="890231.6254269296" />
		<node id="1025856576" x="2372265.7757645454" y="890144.8240081061" />
		<node id="1025856578" x="2372207.301923312" y="890643.6581195963" />
		<node id="1025856594" x="2371848.6085961345" y="890591.9464438927" />
		<node id="1025856597" x="2372200.7839106144" y="890645.1269974706" />
		<node id="1025856603" x="2371431.41411719" y="891320.4999698221" />
		<node id="1025856610" x="2371352.3048060345" y="891074.9274471616" />
		<node id="1025856613" x="2371591.3595369253" y="891411.1287718673" />
		<node id="1025856619" x="2372227.188471648" y="890717.8815777086" />
		<node id="1025856624" x="2372861.073911923" y="889881.6650770216" />
		<node id="1025856629" x="2372014.85962511" y="890683.7902676688" />
		<node id="1025856636" x="2371762.9193536015" y="891386.5701167756" />
		<node id="1025856649" x="2371829.8133912752" y="891230.00897798" />
		<node id="1025856668" x="2371604.4286831254" y="891388.0913090052" />
		<node id="1025856682" x="2371986.2531546135" y="890540.9096146546" />
		<node id="1025856686" x="2372782.4160893937" y="890185.6297368183" />
		<node id="1025856691" x="2372291.293011323" y="890306.2503486392" />
		<node id="1025856700" x="2372758.9558905712" y="890186.537897775" />
		<node id="1025856705" x="2371540.4223138383" y="891391.3837695755" />
		<node id="1025856706" x="2371859.9942097333" y="890714.2771910907" />
		<node id="1025856723" x="2371501.5836168705" y="890866.6568218475" />
		<node id="1025856725" x="2371621.5945191537" y="891346.0580474534" />
		<node id="1025863621" x="2368279.964699684" y="889969.043780555" />
		<node id="1025863622" x="2368817.3416682486" y="890779.1535431956" />
		<node id="1025863630" x="2368156.6830121544" y="891270.1075614801" />
		<node id="1025863632" x="2368173.0429422776" y="890144.4539443657" />
		<node id="1025863633" x="2368555.8750042315" y="891030.7238602998" />
		<node id="1025863637" x="2368872.293655494" y="890729.9775031499" />
		<node id="1025863640" x="2368637.753852312" y="891350.6127209405" />
		<node id="1025863642" x="2367796.850691275" y="890333.0890513578" />
		<node id="1025863647" x="2368498.7996171834" y="890867.2298537376" />
		<node id="1025863648" x="2368413.564278917" y="890897.0810154435" />
		<node id="1025863654" x="2368550.942624992" y="890416.6718513023" />
		<node id="1025863655" x="2368815.11275884" y="890103.7526952779" />
		<node id="1025863657" x="2368877.439158927" y="890931.2318576259" />
		<node id="1025863662" x="2368216.4385116347" y="890974.4504042575" />
		<node id="1025863665" x="2368333.792064225" y="891196.4354343226" />
		<node id="1025863667" x="2367980.6378871934" y="890545.6150383818" />
		<node id="1025863669" x="2368815.017767188" y="890945.0932476531" />
		<node id="1026115377" x="2369812.0030632326" y="886420.4837804715" />
		<node id="1026115383" x="2371427.60027437" y="889348.9831815144" />
		<node id="1026115394" x="2369853.622332665" y="886394.9092412182" />
		<node id="1026115433" x="2369674.9284460973" y="887603.4326846525" />
		<node id="1026115452" x="2369914.1255346914" y="888619.0425107053" />
		<node id="1026115456" x="2369938.006799107" y="886193.1227012385" />
		<node id="1026115467" x="2370005.0089231026" y="886718.434172817" />
		<node id="1026115514" x="2370296.0603652853" y="886705.4682671564" />
		<node id="1026115522" x="2371857.2968759025" y="889767.3056956418" />
		<node id="1026115534" x="2369778.3807769516" y="887509.3024388114" />
		<node id="1026115561" x="2369695.0997145534" y="888893.9117845055" />
		<node id="1026115579" x="2371437.1364043797" y="889934.0318397476" />
		<node id="1026115614" x="2369991.543308302" y="886555.568199836" />
		<node id="1026115628" x="2369713.9744421327" y="886399.9130233207" />
		<node id="1026115656" x="2370313.8205920514" y="889008.6384406288" />
		<node id="1026115662" x="2369713.448581645" y="886357.8615791468" />
		<node id="1026115665" x="2371526.5355416737" y="889744.162757649" />
		<node id="1026115685" x="2369729.798055621" y="886561.7479023959" />
		<node id="1026115692" x="2369746.1153318887" y="887252.830400018" />
		<node id="1026115711" x="2370453.037231993" y="890237.3240176277" />
		<node id="1026115735" x="2369932.7996374983" y="887536.2190062727" />
		<node id="1026115739" x="2369767.6753816335" y="886706.4327727518" />
		<node id="1026115749" x="2370024.1290844404" y="886119.9028332824" />
		<node id="1026115757" x="2370001.2418644056" y="886359.6924217737" />
		<node id="1026115764" x="2371586.644713112" y="888495.9263290276" />
		<node id="1026115774" x="2371167.187548227" y="889418.2404860973" />
		<node id="1026115780" x="2371473.859385855" y="890785.3074382339" />
		<node id="1026115816" x="2370081.730646778" y="886330.5605875687" />
		<node id="1026115864" x="2369893.951602459" y="886315.6513070719" />
		<node id="1026115900" x="2369996.821454951" y="886619.4892523859" />
		<node id="1026115931" x="2372508.463144719" y="884182.9933419664" />
		<node id="1026115965" x="2369744.6871098476" y="888855.5078595399" />
		<node id="1026115995" x="2370103.4675429664" y="887291.9015042379" />
		<node id="1026116013" x="2371289.8454969716" y="889411.328399289" />
		<node id="1026116040" x="2370080.9409958418" y="888860.4973669142" />
		<node id="1026116051" x="2370009.22617018" y="886769.4879627262" />
		<node id="1026116083" x="2369790.8914088216" y="886202.8716860064" />
		<node id="1026116093" x="2372585.9316992606" y="883667.205522367" />
		<node id="1026116105" x="2369815.014099171" y="888420.1041480609" />
		<node id="1026116134" x="2370444.037794195" y="890036.6528213887" />
		<node id="1026116143" x="2370977.799202701" y="889359.5558366283" />
		<node id="1026116179" x="2370158.9774590232" y="886310.7292611633" />
		<node id="1026116184" x="2370095.9414434345" y="886400.0001922207" />
		<node id="1026116190" x="2369825.566204106" y="887715.3786616777" />
		<node id="1026116232" x="2369999.4523761235" y="886651.2777005761" />
		<node id="1026116271" x="2369800.361231951" y="886563.8334613796" />
		<node id="1026116309" x="2370035.879738864" y="887394.6339864058" />
		<node id="1026116312" x="2370033.419780478" y="886260.9556249906" />
		<node id="1026116339" x="2369885.0809229617" y="886965.8060285196" />
		<node id="1026116356" x="2370077.073882997" y="886542.2971502589" />
		<node id="1026116359" x="2371017.6964054415" y="889691.1203378194" />
		<node id="1026116382" x="2370298.95108369" y="886733.4482712058" />
		<node id="1026116386" x="2369834.527631538" y="886359.7152464988" />
		<node id="1026116435" x="2369680.2247528154" y="887537.4168690247" />
		<node id="1026116444" x="2370033.444320848" y="886373.980600538" />
		<node id="1026116459" x="2370090.1431583995" y="886675.3586954594" />
		<node id="1026116471" x="2369739.4579017954" y="887027.1004939139" />
		<node id="1026116509" x="2370032.278869416" y="886108.2011810781" />
		<node id="1026116535" x="2371541.9374539694" y="888613.2858171723" />
		<node id="1026116541" x="2370093.5542085874" y="886710.0556142954" />
		<node id="1026116551" x="2371349.315866303" y="890156.0227443064" />
		<node id="1026116594" x="2369797.388886187" y="886259.1302141241" />