<?xml version="1.0" encoding="utf-8"?>
<!DOCTYPE population SYSTEM "http://www.matsim.org/files/dtd/population_v5.dtd">

<population>

<!-- ===============================DV Police ======================================= -->

	<person id="0" employed="yes">
		<plan selected="yes">
			<act type="origin" facility="0" x="2369292.81183" y="890012.70917" end_time="09:00:00" />
			<leg mode="car" dep_time="09:00:00">
			</leg>
			<act type="destination" facility="19" x="2369292.48749" y="890580.85362" end_time="09:15:00" />
			<leg mode="car" dep_time="09:15:00">
			</leg>
			<act type="origin" facility="0" x="2369292.81183" y="890012.70917" />
		</plan>

	</person>
	
<!-- ==================================Maria Reyna==================================== -->

	<person id="1" employed="yes">
		<plan selected="yes">
			<act type="origin" facility="10" x="2370855.898997127" y="889762.9693487085" end_time="09:30:00" />
			<leg mode="car" dep_time="09:30:00">
			</leg>
			<act type="destination" facility="19" x="2369292.48749" y="890580.85362" end_time="09:45:00" />
			<leg mode="car" dep_time="09:15:00">
			</leg>
			<act type="origin" facility="10" x="2370855.898997127" y="889762.9693487085" />
		</plan>

	</person>
	

	
<!-- ===================================Provincial Hospital=================================== -->

	<person id="2" employed="yes">
		<plan selected="yes">
			<act type="origin" facility="11" x="2370167.282520947" y="890888.3188375039" end_time="10:00:00" />
			<leg mode="car" dep_time="10:00:00">
			</leg>
			<act type="destination" facility="19" x="2369292.48749" y="890580.85362" end_time="10:15:00" />
			<leg mode="car" dep_time="09:15:00">
			</leg>
			<act type="origin" facility="11" x="2370167.282520947" y="890888.3188375039" />
		</plan>

	</person>

	
<!-- =====================================Sabal Hospital================================= -->

	<person id="3" employed="yes">
		<plan selected="yes">
			<act type="origin" facility="12" x="2369952.441334766" y="890990.9386913532" end_time="10:30:00" />
			<leg mode="car" dep_time="10:30:00">
			</leg>
			<act type="destination" facility="19" x="2369292.48749" y="890580.85362" end_time="10:45:00" />
			<leg mode="car" dep_time="09:15:00">
			</leg>
			<act type="origin" facility="12" x="2369952.441334766" y="890990.9386913532" />
		</plan>

	</person>

<!-- ================================Polymedic====================================== -->	
	<person id="4" employed="yes">
		<plan selected="yes">
			<act type="origin" facility="13" x="2369695.201006934" y="890534.689450975" end_time="11:00:00" />
			<leg mode="car" dep_time="11:00:00">
			</leg>
			<act type="destination" facility="19" x="2369292.48749" y="890580.85362" end_time="11:15:00" />
			<leg mode="car" dep_time="09:15:00">
			</leg>
			<act type="origin" facility="13" x="2369695.201006934" y="890534.689450975" />
		</plan>

	</person>
	
<!-- ====================================Maternity================================== -->	
	<person id="5" employed="yes">
		<plan selected="yes">
			<act type="origin" facility="14" x="2369354.7979941964" y="889766.0738617886" end_time="11:30:00" />
			<leg mode="car" dep_time="11:30:00">
			</leg>
			<act type="destination" facility="19" x="2369292.48749" y="890580.85362" end_time="11:45:00" />
			<leg mode="car" dep_time="09:15:00">
			</leg>
			<act type="origin" facility="14" x="2369695.201006934" y="890534.689450975" />
		</plan>

	</person>

<!-- ========================================Madonna Hospital============================== -->	
		<person id="6" employed="yes">
		<plan selected="yes">
			<act type="origin" facility="15" x="2368530.963216997" y="889846.141530682" end_time="12:00:00" />
			<leg mode="car" dep_time="12:00:00">
			</leg>
			<act type="destination" facility="19" x="2369292.48749" y="890580.85362" end_time="12:15:00" />
			<leg mode="car" dep_time="09:15:00">
			</leg>
			<act type="origin" facility="15" x="2368530.963216997" y="889846.141530682" />
		</plan>

	</person>

<!-- ===================================City Hospital=================================== -->	
	<person id="7" employed="yes">
		<plan selected="yes">
			<act type="origin" facility="16" x="2367655.038612423" y="890362.4457075029" end_time="12:30:00" />
			<leg mode="car" dep_time="12:30:00">
			</leg>
			<act type="destination" facility="19" x="2369292.48749" y="890580.85362" end_time="12:45:00" />
			<leg mode="car" dep_time="09:15:00">
			</leg>
			<act type="origin" facility="16" x="2367655.038612423" y="890362.4457075029" />
		</plan>

	</person>

<!-- ====================================Polymedic plaza================================== -->
	<person id="8" employed="yes">
		<plan selected="yes">
			<act type="origin" facility="17" x="2368029.3059445783" y="891785.1401065544" end_time="01:00:00" />
			<leg mode="car" dep_time="01:00:00">
			</leg>
			<act type="destination" facility="19" x="2369292.48749" y="890580.85362" end_time="01:15:00" />
			<leg mode="car" dep_time="09:15:00">
			</leg>
			<act type="origin" facility="17" x="2368029.3059445783" y="891785.1401065544" />
		</plan>

	</person>
<!-- ====================================Medical Hospital================================== -->
	<person id="9" employed="yes">
		<plan selected="yes">
			<act type="origin" facility="18" x="2369843.962274919" y="890973.0695289645" end_time="01:30:00" />
			<leg mode="car" dep_time="01:30:00">
			</leg>
			<act type="destination" facility="19" x="2369292.48749" y="890580.85362" end_time="01:45:00" />
			<leg mode="car" dep_time="09:15:00">
			</leg>
			<act type="origin" facility="18" x="2369843.962274919" y="890973.0695289645" />
		</plan>

	</person>
	
<!-- ===============================DV Police ======================================= -->

	<person id="10" employed="yes">
		<plan selected="yes">
			<act type="origin" facility="0" x="2369292.81183" y="890012.70917" end_time="01:30:00" />
			<leg mode="car" dep_time="01:30:00">
			</leg>
			<act type="destination" facility="19" x="2369292.48749" y="890580.85362" end_time="01:45:00" />
			<leg mode="car" dep_time="01:45:00">
			</leg>
			<act type="origin" facility="0" x="2369292.81183" y="890012.70917" />
		</plan>

	</person>
	
<!-- ==================================Maria Reyna==================================== -->

	<person id="11" employed="yes">
		<plan selected="yes">
			<act type="origin" facility="10" x="2370855.898997127" y="889762.9693487085" end_time="03:00:00" />
			<leg mode="car" dep_time="03:00:00">
			</leg>
			<act type="destination" facility="19" x="2369292.48749" y="890580.85362" end_time="03:15:00" />
			<leg mode="car" dep_time="03:15:00">
			</leg>
			<act type="origin" facility="10" x="2370855.898997127" y="889762.9693487085" />
		</plan>

	</person>
	
<!-- =================================Macabalan Fire Station===================================== -->	
	<person id="12" employed="yes">
		<plan selected="yes">
			<act type="origin" facility="22" x="2371113.48983" y="893177.56688" end_time="03:00:00" />
			<leg mode="car" dep_time="03:00:00">
			</leg>
			<act type="destination" facility="19" x="2369292.48749" y="890580.85362" end_time="03:15:00" />
			<leg mode="car" dep_time="09:15:00">
			</leg>
			<act type="origin" facility="22" x="2371113.48983" y="893177.56688" />
		</plan>

	</person>
<!-- ==================================Aloba Fire Station==================================== -->	
		<person id="13" employed="yes">
		<plan selected="yes">
			<act type="origin" facility="21" x="2369946.20557" y="887431.34376" end_time="03:30:00" />
			<leg mode="car" dep_time="03:30:00">
			</leg>
			<act type="destination" facility="19" x="2369292.48749" y="890580.85362" end_time="03:45:00" />
			<leg mode="car" dep_time="09:15:00">
			</leg>
			<act type="origin" facility="21" x="2369946.20557" y="887431.34376" />
		</plan>

	</person>
<!-- ================================Macabalan Fire Station====================================== -->	
			<person id="14" employed="yes">
		<plan selected="yes">
			<act type="origin" facility="22" x="2371113.48983" y="893177.56688" end_time="04:00:00" />
			<leg mode="car" dep_time="04:00:00">
			</leg>
			<act type="destination" facility="19" x="2369292.48749" y="890580.85362" end_time="04:15:00" />
			<leg mode="car" dep_time="09:15:00">
			</leg>
			<act type="origin" facility="22" x="2371113.48983" y="893177.56688" />
		</plan>

	</person>
<!-- ===============================agora police======================================= -->	
	<person id="15" employed="yes">
		<plan selected="yes">
			<act type="origin" facility="3" x="2371042.87358" y="891329.15045" end_time="04:30:00" />
			<leg mode="car" dep_time="04:30:00">
			</leg>
			<act type="destination" facility="19" x="2369292.48749" y="890580.85362" end_time="04:45:00" />
			<leg mode="car" dep_time="09:15:00">
			</leg>
			<act type="origin" facility="3" x="2371042.87358" y="891329.15045" />
		</plan>

	</person>
<!-- ====================================carmen police================================== -->	
		<person id="16" employed="yes">
		<plan selected="yes">
			<act type="origin" facility="4" x="2368640.97936" y="890271.56876" end_time="05:00:00" />
			<leg mode="car" dep_time="05:00:00">
			</leg>
			<act type="destination" facility="19" x="2369292.48749" y="890580.85362" end_time="05:15:00" />
			<leg mode="car" dep_time="09:15:00">
			</leg>
			<act type="origin" facility="4" x="2368640.97936" y="890271.56876" />
		</plan>

	</person>
	
<!-- ==================================Macabalan police==================================== -->
	<person id="17" employed="yes">
		<plan selected="yes">
			<act type="origin" facility="5" x="2371283.38043" y="892507.41226" end_time="05:30:00" />
			<leg mode="car" dep_time="05:30:00">
			</leg>
			<act type="destination" facility="19" x="2369292.48749" y="890580.85362" end_time="05:45:00" />
			<leg mode="car" dep_time="09:15:00">
			</leg>
			<act type="origin" facility="5" x="2371283.38043" y="892507.41226" />
		</plan>

	</person>
<!-- ===================================Macasandig Police=================================== -->

	<person id="18" employed="yes">
		<plan selected="yes">
			<act type="origin" facility="6" x="2369755.79361" y="888529.79714" end_time="06:00:00" />
			<leg mode="car" dep_time="06:00:00">
			</leg>
			<act type="destination" facility="19" x="2369292.48749" y="890580.85362" end_time="06:15:00" />
			<leg mode="car" dep_time="09:15:00">
			</leg>
			<act type="origin" facility="6" x="2369755.79361" y="888529.79714" />
		</plan>

	</person>

<!-- ================================Operation Director Police====================================== -->

		<person id="19" employed="yes">
		<plan selected="yes">
			<act type="origin" facility="7" x="2367979.04346" y="889937.45813" end_time="06:30:00" />
			<leg mode="car" dep_time="06:30:00">
			</leg>
			<act type="destination" facility="19" x="2369292.48749" y="890580.85362" end_time="06:45:00" />
			<leg mode="car" dep_time="09:15:00">
			</leg>
			<act type="origin" facility="7" x="2367979.04346" y="889937.45813" />
		</plan>

	</person>

		<!-- ==================================Provincial Director Police==================================== -->
		
	<person id="20" employed="yes">
		<plan selected="yes">
			<act type="origin" facility="8" x="2367967.05666" y="889942.45153" end_time="07:00:00" />
			<leg mode="car" dep_time="07:00:00">
			</leg>
			<act type="destination" facility="19" x="2369292.48749" y="890580.85362" end_time="07:15:00" />
			<leg mode="car" dep_time="09:15:00">
			</leg>
			<act type="origin" facility="8" x="2367967.05666" y="889942.45153" />
		</plan>

	</person>
<!-- ===================================CUMC=================================== -->	
	<person id="21" employed="yes">
		<plan selected="yes">
			<act type="origin" facility="9" x="2372938.905255894" y="890299.9450526924" end_time="07:30:00" />
			<leg mode="car" dep_time="07:30:00">
			</leg>
			<act type="destination" facility="19" x="2369292.48749" y="890580.85362" end_time="07:45:00" />
			<leg mode="car" dep_time="09:15:00">
			</leg>
			<act type="origin" facility="9" x="2372938.905255894" y="890299.9450526924" />
		</plan>

	</person>
	
<!-- ==================================Macabalan police==================================== -->	
		<person id="22" employed="yes">
		<plan selected="yes">
			<act type="origin" facility="5" x="2371283.38043" y="892507.41226" end_time="07:30:00" />
			<leg mode="car" dep_time="07:30:00">
			</leg>
			<act type="destination" facility="19" x="2369292.48749" y="890580.85362" end_time="07:45:00" />
			<leg mode="car" dep_time="07:45:00">
			</leg>
			<act type="origin" facility="5" x="2371283.38043" y="892507.41226" />
		</plan>

	</person>
	
<!-- =================================CDO Fire Station===================================== -->
	
	<person id="23" employed="yes">
		<plan selected="yes">
			<act type="origin" facility="20" x="2370372.5616" y="890206.78162" end_time="09:00:00" />
			<leg mode="car" dep_time="09:00:00">
			</leg>
			<act type="destination" facility="19" x="2369292.48749" y="890580.85362" end_time="09:15:00" />
			<leg mode="car" dep_time="09:15:00">
			</leg>
			<act type="origin" facility="20" x="2370372.5616" y="890206.78162" />
		</plan>

	</person>

<!-- ==================================Aloba Fire Station==================================== -->
	
	<person id="24" employed="yes">
		<plan selected="yes">
			<act type="origin" facility="21" x="2369946.20557" y="887431.34376" end_time="09:30:00" />
			<leg mode="car" dep_time="09:30:00">
			</leg>
			<act type="destination" facility="19" x="2369292.48749" y="890580.85362" end_time="09:45:00" />
			<leg mode="car" dep_time="09:15:00">
			</leg>
			<act type="origin" facility="21" x="2369946.20557" y="887431.34376" />
		</plan>

	</person>
<!-- ===============================agora police======================================= -->	
		<person id="25" employed="yes">
		<plan selected="yes">
			<act type="origin" facility="3" x="2371042.87358" y="891329.15045" end_time="09:30:00" />
			<leg mode="car" dep_time="09:30:00">
			</leg>
			<act type="destination" facility="19" x="2369292.48749" y="890580.85362" end_time="09:45:00" />
			<leg mode="car" dep_time="09:15:00">
			</leg>
			<act type="origin" facility="3" x="2371042.87358" y="891329.15045" />
		</plan>

	</person>

	
	
<!-- ====================================Polymedic plaza================================== -->	
	<person id="26" employed="yes">
		<plan selected="yes">
			<act type="origin" facility="17" x="2368029.3059445783" y="891785.1401065544" end_time="06:00:00" />
			<leg mode="car" dep_time="06:00:00">
			</leg>
			<act type="destination" facility="19" x="2369292.48749" y="890580.85362" end_time="06:30:00" />
			<leg mode="car" dep_time="06:30:00">
			</leg>
			<act type="origin" facility="17" x="2368029.3059445783" y="891785.1401065544" />
		</plan>

	</person>
	
<!-- =================================CDO Fire Station===================================== -->
	
	<person id="27" employed="yes">
		<plan selected="yes">
			<act type="origin" facility="20" x="2370372.5616" y="890206.78162" end_time="10:00:00" />
			<leg mode="car" dep_time="10:00:00">
			</leg>
			<act type="destination" facility="19" x="2369292.48749" y="890580.85362" end_time="10:15:00" />
			<leg mode="car" dep_time="09:15:00">
			</leg>
			<act type="origin" facility="20" x="2370372.5616" y="890206.78162" />
		</plan>

	</person>

<!-- ===================================CUMC=================================== -->	
	<person id="28" employed="yes">
		<plan selected="yes">
			<act type="origin" facility="9" x="2372938.905255894" y="890299.9450526924" end_time="04:30:00" />
			<leg mode="car" dep_time="04:30:00">
			</leg>
			<act type="destination" facility="19" x="2369292.48749" y="890580.85362" end_time="05:00:00" />
			<leg mode="car" dep_time="05:00:00">
			</leg>
			<act type="origin" facility="9" x="2372938.905255894" y="890299.9450526924" />
		</plan>

	</person>
	
<!-- ==================================Provincial Director Police==================================== -->
		
	<person id="29" employed="yes">
		<plan selected="yes">
			<act type="origin" facility="8" x="2367967.05666" y="889942.45153" end_time="10:30:00" />
			<leg mode="car" dep_time="10:30:00">
			</leg>
			<act type="destination" facility="19" x="2369292.48749" y="890580.85362" end_time="10:45:00" />
			<leg mode="car" dep_time="10:45:00">
			</leg>
			<act type="origin" facility="8" x="2367967.05666" y="889942.45153" />
		</plan>

	</person>

<!-- ====================================carmen police================================== -->	
		<person id="30" employed="yes">
		<plan selected="yes">
			<act type="origin" facility="4" x="2368640.97936" y="890271.56876" end_time="11:30:00" />
			<leg mode="car" dep_time="11:30:00">
			</leg>
			<act type="destination" facility="19" x="2369292.48749" y="890580.85362" end_time="11:45:00" />
			<leg mode="car" dep_time="09:15:00">
			</leg>
			<act type="origin" facility="4" x="2368640.97936" y="890271.56876" />
		</plan>

	</person>

<!-- ================================Operation Director Police====================================== -->

		<person id="31" employed="yes">
		<plan selected="yes">
			<act type="origin" facility="7" x="2367979.04346" y="889937.45813" end_time="12:30:00" />
			<leg mode="car" dep_time="12:30:00">
			</leg>
			<act type="destination" facility="19" x="2369292.48749" y="890580.85362" end_time="12:45:00" />
			<leg mode="car" dep_time="12:45:00">
			</leg>
			<act type="origin" facility="7" x="2367979.04346" y="889937.45813" />
		</plan>

	</person>

<!-- =================================aloba Fire Station===================================== -->	
	<person id="32" employed="yes">
		<plan selected="yes">
			<act type="origin" facility="21" x="2369946.20557" y="887431.34376" end_time="12:30:00" />
			<leg mode="car" dep_time="12:30:00">
			</leg>
			<act type="destination" facility="19" x="2369292.48749" y="890580.85362" end_time="12:45:00" />
			<leg mode="car" dep_time="09:15:00">
			</leg>
			<act type="origin" facility="21" x="2369946.20557" y="887431.34376" />
		</plan>

	</person>
	
<!-- =====================================Sabal Hospital================================= -->

	<person id="33" employed="yes">
		<plan selected="yes">
			<act type="origin" facility="12" x="2369952.441334766" y="890990.9386913532" end_time="09:00:00" />
			<leg mode="car" dep_time="09:00:00">
			</leg>
			<act type="destination" facility="19" x="2369292.48749" y="890580.85362" end_time="09:30:00" />
			<leg mode="car" dep_time="09:30:00">
			</leg>
			<act type="origin" facility="12" x="2369952.441334766" y="890990.9386913532" />
		</plan>

	</person>
	
<!-- ===================================Macasandig Police=================================== -->

	<person id="34" employed="yes">
		<plan selected="yes">
			<act type="origin" facility="6" x="2369755.79361" y="888529.79714" end_time="10:00:00" />
			<leg mode="car" dep_time="10:00:00">
			</leg>
			<act type="destination" facility="19" x="2369292.48749" y="890580.85362" end_time="10:30:00" />
			<leg mode="car" dep_time="10:30:00">
			</leg>
			<act type="origin" facility="6" x="2369755.79361" y="888529.79714" />
		</plan>

	</person>
	
<!-- =================================CDO Fire Station===================================== -->
	
	<person id="35" employed="yes">
		<plan selected="yes">
			<act type="origin" facility="20" x="2370372.5616" y="890206.78162" end_time="10:30:00" />
			<leg mode="car" dep_time="10:30:00">
			</leg>
			<act type="destination" facility="19" x="2369292.48749" y="890580.85362" end_time="10:45:00" />
			<leg mode="car" dep_time="10:45:00">
			</leg>
			<act type="origin" facility="20" x="2370372.5616" y="890206.78162" />
		</plan>

	</person>
	
<!-- ===================================Provincial Hospital=================================== -->

	<person id="36" employed="yes">
		<plan selected="yes">
			<act type="origin" facility="11" x="2370167.282520947" y="890888.3188375039" end_time="05:00:00" />
			<leg mode="car" dep_time="05:00:00">
			</leg>
			<act type="destination" facility="19" x="2369292.48749" y="890580.85362" end_time="05:15:00" />
			<leg mode="car" dep_time="05:15:00">
			</leg>
			<act type="origin" facility="11" x="2370167.282520947" y="890888.3188375039" />
		</plan>

	</person>
	
<!-- ========================================Madonna Hospital============================== -->	
		<person id="37" employed="yes">
		<plan selected="yes">
			<act type="origin" facility="15" x="2368530.963216997" y="889846.141530682" end_time="05:30:00" />
			<leg mode="car" dep_time="05:30:00">
			</leg>
			<act type="destination" facility="19" x="2369292.48749" y="890580.85362" end_time="05:45:00" />
			<leg mode="car" dep_time="05:45:00">
			</leg>
			<act type="origin" facility="15" x="2368530.963216997" y="889846.141530682" />
		</plan>

	</person>
	
<!-- ================================Polymedic====================================== -->	
	<person id="38" employed="yes">
		<plan selected="yes">
			<act type="origin" facility="13" x="2369695.201006934" y="890534.689450975" end_time="06:30:00" />
			<leg mode="car" dep_time="06:30:00">
			</leg>
			<act type="destination" facility="19" x="2369292.48749" y="890580.85362" end_time="06:45:00" />
			<leg mode="car" dep_time="06:45:00">
			</leg>
			<act type="origin" facility="13" x="2369695.201006934" y="890534.689450975" />
		</plan>

	</person>
	
<!-- ===================================City Hospital=================================== -->	
	<person id="39" employed="yes">
		<plan selected="yes">
			<act type="origin" facility="16" x="2367655.038612423" y="890362.4457075029" end_time="07:00:00" />
			<leg mode="car" dep_time="07:00:00">
			</leg>
			<act type="destination" facility="19" x="2369292.48749" y="890580.85362" end_time="07:15:00" />
			<leg mode="car" dep_time="07:15:00">
			</leg>
			<act type="origin" facility="16" x="2367655.038612423" y="890362.4457075029" />
		</plan>

	</person>
	
<!-- ====================================Maternity================================== -->	
	<person id="40" employed="yes">
		<plan selected="yes">
			<act type="origin" facility="14" x="2369354.7979941964" y="889766.0738617886" end_time="07:00:00" />
			<leg mode="car" dep_time="07:00:00">
			</leg>
			<act type="destination" facility="19" x="2369292.48749" y="890580.85362" end_time="07:15:00" />
			<leg mode="car" dep_time="07:15:00">
			</leg>
			<act type="origin" facility="14" x="2369695.201006934" y="890534.689450975" />
		</plan>

	</person>
	
<!-- ====================================Medical Hospital================================== -->
	<person id="41" employed="yes">
		<plan selected="yes">
			<act type="origin" facility="18" x="2369843.962274919" y="890973.0695289645" end_time="04:00:00" />
			<leg mode="car" dep_time="04:00:00">
			</leg>
			<act type="destination" facility="19" x="2369292.48749" y="890580.85362" end_time="04:15:00" />
			<leg mode="car" dep_time="04:15:00">
			</leg>
			<act type="origin" facility="18" x="2369843.962274919" y="890973.0695289645" />
		</plan>

	</person>
	
<!-- ====================================cogon police================================== -->	
		<person id="42" employed="yes">
		<plan selected="yes">
			<act type="origin" facility="2" x="2370387.30679" y="889944.51613" end_time="03:00:00" />
			<leg mode="car" dep_time="03:00:00">
			</leg>
			<act type="destination" facility="19" x="2369292.48749" y="890580.85362" end_time="03:30:00" />
			<leg mode="car" dep_time="03:30:00">
			</leg>
			<act type="origin" facility="2" x="2370387.30679" y="889944.51613" />
		</plan>

	</person>
	
<!-- ====================================cogon police================================== -->	
		<person id="43" employed="yes">
		<plan selected="yes">
			<act type="origin" facility="2" x="2370387.30679" y="889944.51613" end_time="04:00:00" />
			<leg mode="car" dep_time="04:00:00">
			</leg>
			<act type="destination" facility="19" x="2369292.48749" y="890580.85362" end_time="04:30:00" />
			<leg mode="car" dep_time="04:30:00">
			</leg>
			<act type="origin" facility="2" x="2370387.30679" y="889944.51613" />
		</plan>

	</person>
	
<!-- ====================================Polymedic plaza================================== -->	
	<person id="44" employed="yes">
		<plan selected="yes">
			<act type="origin" facility="17" x="2368029.3059445783" y="891785.1401065544" end_time="09:10:00" />
			<leg mode="car" dep_time="09:10:00">
			</leg>
			<act type="destination" facility="19" x="2369292.48749" y="890580.85362" end_time="09:40:00" />
			<leg mode="car" dep_time="09:40:00">
			</leg>
			<act type="origin" facility="17" x="2368029.3059445783" y="891785.1401065544" />
		</plan>

	</person>
	
	<!-- end of population1 -->
	

<!-- ===============================DV Police ======================================= -->

	<person id="45" employed="yes">
		<plan selected="yes">
			<act type="origin" facility="0" x="2369292.81183" y="890012.70917" end_time="09:00:00" />
			<leg mode="car" dep_time="09:00:00">
			</leg>
			<act type="destination" facility="23" x="2368574.68013" y="885885.89122" end_time="09:15:00" />
			<leg mode="car" dep_time="09:15:00">
			</leg>
			<act type="origin" facility="0" x="2369292.81183" y="890012.70917" />
		</plan>

	</person>
	
<!-- ==================================Maria Reyna==================================== -->

	<person id="46" employed="yes">
		<plan selected="yes">
			<act type="origin" facility="10" x="2370855.898997127" y="889762.9693487085" end_time="09:30:00" />
			<leg mode="car" dep_time="09:30:00">
			</leg>
			<act type="destination" facility="23" x="2368574.68013" y="885885.89122" end_time="09:45:00" />
			<leg mode="car" dep_time="09:15:00">
			</leg>
			<act type="origin" facility="10" x="2370855.898997127" y="889762.9693487085" />
		</plan>

	</person>
	

	
<!-- ===================================Provincial Hospital=================================== -->

	<person id="47" employed="yes">
		<plan selected="yes">
			<act type="origin" facility="11" x="2370167.282520947" y="890888.3188375039" end_time="10:00:00" />
			<leg mode="car" dep_time="10:00:00">
			</leg>
			<act type="destination" facility="23" x="2368574.68013" y="885885.89122" end_time="10:15:00" />
			<leg mode="car" dep_time="09:15:00">
			</leg>
			<act type="origin" facility="11" x="2370167.282520947" y="890888.3188375039" />
		</plan>

	</person>

	
<!-- =====================================Sabal Hospital================================= -->

	<person id="48" employed="yes">
		<plan selected="yes">
			<act type="origin" facility="12" x="2369952.441334766" y="890990.9386913532" end_time="10:30:00" />
			<leg mode="car" dep_time="10:30:00">
			</leg>
			<act type="destination" facility="23" x="2368574.68013" y="885885.89122" end_time="10:45:00" />
			<leg mode="car" dep_time="09:15:00">
			</leg>
			<act type="origin" facility="12" x="2369952.441334766" y="890990.9386913532" />
		</plan>

	</person>

<!-- ================================Polymedic====================================== -->	
	<person id="49" employed="yes">
		<plan selected="yes">
			<act type="origin" facility="13" x="2369695.201006934" y="890534.689450975" end_time="11:00:00" />
			<leg mode="car" dep_time="11:00:00">
			</leg>
			<act type="destination" facility="23" x="2368574.68013" y="885885.89122" end_time="11:15:00" />
			<leg mode="car" dep_time="09:15:00">
			</leg>
			<act type="origin" facility="13" x="2369695.201006934" y="890534.689450975" />
		</plan>

	</person>
	
<!-- ====================================Maternity================================== -->	
	<person id="50" employed="yes">
		<plan selected="yes">
			<act type="origin" facility="14" x="2369354.7979941964" y="889766.0738617886" end_time="11:30:00" />
			<leg mode="car" dep_time="11:30:00">
			</leg>
			<act type="destination" facility="23" x="2368574.68013" y="885885.89122" end_time="11:45:00" />
			<leg mode="car" dep_time="09:15:00">
			</leg>
			<act type="origin" facility="14" x="2369695.201006934" y="890534.689450975" />
		</plan>

	</person>

<!-- ========================================Madonna Hospital============================== -->	
		<person id="51" employed="yes">
		<plan selected="yes">
			<act type="origin" facility="15" x="2368530.963216997" y="889846.141530682" end_time="12:00:00" />
			<leg mode="car" dep_time="12:00:00">
			</leg>
			<act type="destination" facility="23" x="2368574.68013" y="885885.89122" end_time="12:15:00" />
			<leg mode="car" dep_time="09:15:00">
			</leg>
			<act type="origin" facility="15" x="2368530.963216997" y="889846.141530682" />
		</plan>

	</person>

<!-- ===================================City Hospital=================================== -->	
	<person id="52" employed="yes">
		<plan selected="yes">
			<act type="origin" facility="16" x="2367655.038612423" y="890362.4457075029" end_time="12:30:00" />
			<leg mode="car" dep_time="12:30:00">
			</leg>
			<act type="destination" facility="23" x="2368574.68013" y="885885.89122" end_time="12:45:00" />
			<leg mode="car" dep_time="09:15:00">
			</leg>
			<act type="origin" facility="16" x="2367655.038612423" y="890362.4457075029" />
		</plan>

	</person>

<!-- ====================================Polymedic plaza================================== -->
	<person id="53" employed="yes">
		<plan selected="yes">
			<act type="origin" facility="17" x="2368029.3059445783" y="891785.1401065544" end_time="01:00:00" />
			<leg mode="car" dep_time="01:00:00">
			</leg>
			<act type="destination" facility="23" x="2368574.68013" y="885885.89122" end_time="01:15:00" />
			<leg mode="car" dep_time="09:15:00">
			</leg>
			<act type="origin" facility="17" x="2368029.3059445783" y="891785.1401065544" />
		</plan>

	</person>